<?xml version="1.0" encoding="UTF-8"?>
<edges>
    <edge id="north2center" from="north" to="center" numLanes="2" speed="13.89"/>
    <edge id="center2north" from="center" to="north" numLanes="2" speed="13.89"/>
    <edge id="south2center" from="south" to="center" numLanes="2" speed="13.89"/>
    <edge id="center2south" from="center" to="south" numLanes="2" speed="13.89"/>
    <edge id="east2center" from="east" to="center" numLanes="2" speed="13.89"/>
    <edge id="center2east" from="center" to="east" numLanes="2" speed="13.89"/>
    <edge id="west2center" from="west" to="center" numLanes="2" speed="13.89"/>
    <edge id="center2west" from="center" to="west" numLanes="2" speed="13.89"/>
</edges>