<?xml version="1.0" encoding="UTF-8"?>
<routes xmlns:xsi="http://www.w3.org/2001/XMLSchema-instance" xsi:noNamespaceSchemaLocation="http://sumo.dlr.de/xsd/routes_file.xsd">

    <vType id="car" accel="2.6" decel="4.5" sigma="0.5" length="5" minGap=".0" maxSpeed="16.67" guiShape="passenger"/>
    <vType id="bus" accel="1.2" decel="4.5" sigma="0.5" length="12" minGap="1.0" maxSpeed="13.89" guiShape="bus"/>
    <vType id="bike" accel="1.2" decel="4.5" sigma="0.5" length="2" minGap="1.0" maxSpeed="11.11" guiShape="motorcycle"/>
    <vType id="emergency" accel="2.6" decel="4.5" sigma="0.5" length="6" minGap="1.5" maxSpeed="20.83" guiShape="emergency" color="1,0,0"/>

    <route id="north_to_south" edges="north2center center2south"/>
    <route id="south_to_north" edges="south2center center2north"/>
    <route id="east_to_west" edges="east2center center2west"/>
    <route id="west_to_east" edges="west2center center2east"/>

    <flow id="north_cars" begin="0" end="3600" probability="0.35" route="north_to_south" type="car"/>
    <flow id="north_buses" begin="0" end="3600" probability="0.05" route="north_to_south" type="bus"/>
    <flow id="north_bikes" begin="0" end="3600" probability="0.04" route="north_to_south" type="bike"/>

    <flow id="south_cars" begin="0" end="3600" probability="0.29" route="south_to_north" type="car"/>
    <flow id="south_buses" begin="0" end="3600" probability="0.018" route="south_to_north" type="bus"/>
    <flow id="south_bikes" begin="0" end="3600" probability="0.035" route="south_to_north" type="bike"/>

    <flow id="east_cars" begin="0" end="3600" probability="0.3" route="east_to_west" type="car"/>
    <flow id="east_buses" begin="0" end="3600" probability="0.02" route="east_to_west" type="bus"/>
    <flow id="east_bikes" begin="0" end="3600" probability="0.045" route="east_to_west" type="bike"/>

    <flow id="west_cars" begin="0" end="3600" probability="0.32" route="west_to_east" type="car" departLane="0"/>
    <flow id="west_buses" begin="0" end="3600" probability="0.015" route="west_to_east" type="bus" departLane="0"/>
    <flow id="west_bikes" begin="0" end="3600" probability="0.03" route="west_to_east" type="bike" departLane="0"/>

    <flow id="emergency_north" begin="0" end="3600" probability="0.025" route="north_to_south" type="emergency" departSpeed="max"/>
    <flow id="emergency_south" begin="0" end="3600" probability="0.014" route="south_to_north" type="emergency" departSpeed="max"/>
    <flow id="emergency_east" begin="0" end="3600" probability="0.023" route="east_to_west" type="emergency" departSpeed="max"/>
    <flow id="emergency_west" begin="0" end="3600" probability="0.015" route="west_to_east" type="emergency" departLane="0" departSpeed="max"/>

</routes>